Circuit: * Z:\home\Marcos862\Dropbox\academicos (escuela)\02_ITESO\05_Semestre\Analisis y Diseno de Algoritmos\ProyectoFinal\Circuit\OTA_Basic.asc

Model "pmos": Oxide thickness thinner than recommended for a level 3 MOSFET.
Model "nmos": Oxide thickness thinner than recommended for a level 3 MOSFET.
Instance "m6": Width narrower than recommended for a level 3 MOSFET.
Instance "m5": Width narrower than recommended for a level 3 MOSFET.
Direct Newton iteration failed to find .op point.  (Use ".option noopiter" to skip.)
Starting Gmin stepping
Gmin = 10
Gmin = 1.07374
Gmin = 0.115292
Gmin = 0.0123794
Gmin = 0.00132923
Gmin = 0.000142725
Gmin = 1.5325e-005
Gmin = 1.6455e-006
Gmin = 1.76685e-007
Gmin = 1.89714e-008
Gmin = 2.03704e-009
Gmin = 2.18725e-010
Gmin = 2.34854e-011
Gmin = 2.52173e-012
Gmin = 2.70769e-013
Gmin = 0
Gmin stepping succeeded in finding the operating point.


gain: MAX(mag(v(vout)))=(50.9021dB,0°) FROM 10 TO 1e+010
bw: mag(v(vout))=gain/sqrt(2) AT 5.40008e+007r
gbwp=1e+010 FROM 10 TO 1e+010


Date: Thu Nov 29 19:43:25 2018
Total elapsed time: 0.106 seconds.

tnom = 27
temp = 27
method = trap
totiter = 375
traniter = 0
tranpoints = 0
accept = 0
rejected = 0
matrix size = 12
fillins = 0
solver = Normal
Matrix Compiler1:      30 opcodes
Matrix Compiler2: off  [0.9]/1.0/1.4

